Circuit: * C:\Users\maruv\AppData\Local\LTspice\Draft2.asc

Limiting rise time of source v3 to 5e-05
Limiting fall time of source v3 to 5e-05
Direct Newton iteration for .op point succeeded.

Date: Sun Dec  1 16:54:15 2024
Total elapsed time: 0.195 seconds.

tnom = 27
temp = 27
method = modified trap
totiter = 8378
traniter = 8368
tranpoints = 2653
accept = 2310
rejected = 343
matrix size = 30
fillins = 0
solver = Normal
Avg thread counts: 1.2/1.5/1.5/1.2
Matrix Compiler1:      57 opcodes  0.4/[0.3]/0.3
Matrix Compiler2: off  [0.2]/0.5/0.4

